/*--------------------------------*- C++ -*----------------------------------*\
| =========                 |                                                 |
| \\      /  F ield         | OpenFOAM: The Open Source CFD Toolbox           |
|  \\    /   O peration     | Version:  v2412                                 |
|   \\  /    A nd           | Website:  www.openfoam.com                      |
|    \\/     M anipulation  |                                                 |
\*---------------------------------------------------------------------------*/
FoamFile
{
    version     2.0;
    format      ascii;
    class       dictionary;
    object      blockMeshDict;
}
// * * * * * * * * * * * * * * * * * * * * * * * * * * * * * * * * * * * * * //

scale   1;

// nCells  90;

L           0.1;
//D           0.009;
R           0.0045; //0.707106;
r           #eval{0.5 * sqrt(2) * $R};
d           #eval{0.25 * $R};

zcells      100;
xcells      #eval{(2 * $R) / ($L / $zcells)};
ycells      #eval{2 * $xcells};


xcells1     $xcells;
ycells1     $xcells1;
zcells1     $zcells;

stretch  0.25;

vertices
(
    //block0 vertices
    (-$d $d 0)          //0
    (-$r $r 0)  //1
    ($r $r 0)   //2
    ($d $d 0)           //3
    (-$d $d $L)        //4
    (-$r $r $L) //5
    ($r $r $L) //6
    ($d $d $L)         //7

    //block1 new vertices
    ($d -$d 0) //8
    ($r -$r 0)  //9
    ($d -$d $L) //10
    ($r -$r $L) //11

    //block3 new vertices
    (-$d -$d 0) //12
    (-$r -$r 0) //13
    (-$d -$d $L) //14
    (-$r -$r $L) //15

);

blocks
(
    //block0
    hex (0 3 2 1 4 7 6 5) ($xcells $ycells $zcells) simpleGrading (1 $stretch 1)
    //block1
    hex (3 8 9 2 7 10 11 6) ($xcells $ycells $zcells) simpleGrading (1 $stretch 1)
    //block2
    hex (8 12 13 9 10 14 15 11) ($xcells $ycells $zcells) simpleGrading (1 $stretch 1)
    //block3
    hex (12 0 1 13 14 4 5 15) ($xcells $ycells $zcells) simpleGrading (1 $stretch 1)
    //block4
    hex (0 12 8 3 4 14 10 7) ($xcells1 $ycells1 $zcells1) simpleGrading (1 1 1)
);

edges
(
    //block0 arc
    arc 1 2 (0 $R 0)
    arc 5 6 (0 $R $L)

    //block1 arc
    arc 2 9 ($R 0 0)
    arc 6 11 ($R 0 $L)

    //block2 arc
    arc 9 13 (0 -$R 0)
    arc 11 15 (0 -$R $L)

    //block3 arc
    arc 1 13 (-$R 0 0)
    arc 5 15 (-$R 0 $L)
);

boundary
(
    inlet
    {
        type patch;
        faces
        (
            (0 1 2 3)
            (2 3 8 9)
            (8 9 13 12)
            (13 12 0 1)
            (0 3 8 12)
        );
    }

    outlet
    {
        type patch;
        faces
        (
            (4 5 6 7)
            (6 7 10 11)
            (15 11 10 14)
            (15 14 4 5)
            (4 7 10 14)
        );
    }

    walls
    {
        type wall;
        faces
        (
            (1 5 6 2)
            (2 6 11 9)
            (9 11 15 13)
            (15 13 5 1)
        );
    }
);

mergePatchPairs
(
);


// ************************************************************************* //
